%CPU=0-7
%mem=8GB
%chk=mol_sp_vaccum.chk
#P B3LYP/def2TZVP

B3LYP/def2-TZVP with vaccum

0 1
 C                 -3.00145400   -0.72775900    0.20243100
 C                 -3.18117300    0.58699400   -0.17811800
 C                 -1.89421500    1.17316400   -0.30700800
 C                 -0.95132200    0.20171900    0.00215200
 N                 -1.65050600   -0.95333800    0.30109600
 H                 -1.22463300   -1.80216700    0.64176900
 H                 -3.71425300   -1.51237800    0.40846900
 H                 -4.13210500    1.06951300   -0.35645600
 H                 -1.66571500    2.18118400   -0.62353900
 C                  0.49279600    0.26544000    0.03381600
 C                  1.29635100    1.36445800    0.23286100
 S                  1.47728800   -1.16702100   -0.22967300
 C                  2.68958800    1.06428200    0.18776800
 H                  0.89371000    2.35086000    0.43234600
 C                  2.94744100   -0.25941300   -0.03528700
 H                  3.46826600    1.80512400    0.33233600
 H                  3.90358300   -0.75973900   -0.09953100

