%CPU=0-7
%Mem=8GB
%chk=mol_opt.chk
# Opt Freq B3LYP/6-31G* EmpiricalDispersion=GD3BJ

Optimize at B3LYP-D3(BJ)/6-31G* level

0 1
 C                  0.41058788   -2.79339705    0.18911914
 C                 -0.91367203   -3.06741843   -0.17986738
 C                 -1.58210344   -1.80643463   -0.32810801
 C                 -0.64369787   -0.80434353   -0.04458165
 N                  0.56795852   -1.41286822    0.26959170
 H                  1.39944016   -0.94406301    0.50955798
 H                  1.23624243   -3.47311003    0.39597126
 H                 -1.35187810   -4.04894638   -0.32619109
 H                 -2.61969763   -1.65723283   -0.60730864
 C                 -0.79769621    0.72793727   -0.04478949
 C                 -1.99114023    1.41528204   -0.04485141
 S                  0.51094938    1.76889488   -0.04487301
 C                 -1.78149923    2.83197275   -0.04428320
 H                 -2.98275189    0.95916709   -0.04502123
 C                 -0.44018388    3.14427874   -0.04463035
 H                 -2.59851937    3.55573570   -0.04366180
 H                 -0.02236451    4.14907339   -0.04480420

